<routes>
    <vType id="car"
        vClass="passenger" length="5" accel="3.5" decel="2.2"
        sigma="1.0" maxSpeed="10"/>

    <route id="route_0" edges="e5 e2" />
    <route id="route_1" edges="e5 e4" />
    <route id="route_2" edges="e5 e8" />
    <!--
    <vehicle id="0" type="car" route="route_0" depart="0"/>
    <vehicle id="1" type="car" route="route_0" depart="5"/>
    -->
    <flow id="carflow_0" type="car" beg="0" end="0" number ="20" from="e5" to="e2" />
    <flow id="carflow_1" type="car" beg="0" end="0" number ="20" from="e5" to="e4" />
    <flow id="carflow_2" type="car" beg="0" end="0" number ="20" from="e7" to="e4" />
    <flow id="carflow_3" type="car" beg="0" end="0" number ="20" from="e1" to="e6" />
    <flow id="carflow_4" type="car" beg="0" end="0" number ="20" from="e3" to="e8" />
    <flow id="carflow_5" type="car" beg="0" end="0" number ="20" from="e5" to="e4" />

</routes>
